<?xml version="1.0" encoding="UTF-8"?>

<!-- generated on 2024-05-12 17:43:50 by Eclipse SUMO netedit Version 1.19.0
<configuration xmlns:xsi="http://www.w3.org/2001/XMLSchema-instance" xsi:noNamespaceSchemaLocation="http://sumo.dlr.de/xsd/neteditConfiguration.xsd">

    <input>
        <sumocfg-file value="/Users/wagnertamas/Documents/BME/PhD/tárgyak/macro/net.sumocfg"/>
        <additional-files value="/Users/wagnertamas/Documents/BME/PhD/tárgyak/macro/net.add.xml"/>
        <data-files value="/Users/wagnertamas/Documents/BME/PhD/tárgyak/macro/net.dat.xml"/>
        <sumo-net-file value="/Users/wagnertamas/Documents/BME/PhD/tárgyak/macro/net.net.xml"/>
    </input>

    <output>
        <output-file value="/Users/wagnertamas/Documents/BME/PhD/tárgyak/macro/net.net.xml"/>
    </output>

    <processing>
        <geometry.min-radius.fix.railways value="false"/>
        <geometry.max-grade.fix value="false"/>
        <offset.disable-normalization value="true"/>
        <lefthand value="0"/>
    </processing>

    <junctions>
        <no-turnarounds value="true"/>
        <junctions.corner-detail value="5"/>
        <junctions.limit-turn-speed value="5.50"/>
        <rectangular-lane-cut value="0"/>
    </junctions>

    <pedestrian>
        <walkingareas value="0"/>
    </pedestrian>

    <netedit>
        <new-network value="false"/>
    </netedit>

</configuration>
-->

<net version="1.16" junctionCornerDetail="5" limitTurnSpeed="5.50" xmlns:xsi="http://www.w3.org/2001/XMLSchema-instance" xsi:noNamespaceSchemaLocation="http://sumo.dlr.de/xsd/net_file.xsd">

    <location netOffset="0.00,0.00" convBoundary="-50.00,0.00,200.00,150.00" origBoundary="-10000000000.00,-10000000000.00,10000000000.00,10000000000.00" projParameter="!"/>

    <edge id=":J0_0" function="internal">
        <lane id=":J0_0_0" index="0" speed="13.89" length="14.40" shape="-1.60,57.20 -1.60,42.80"/>
    </edge>
    <edge id=":J0_1" function="internal">
        <lane id=":J0_1_0" index="0" speed="8.00" length="4.07" shape="-1.60,57.20 -1.05,53.35 -0.96,53.20"/>
    </edge>
    <edge id=":J0_6" function="internal">
        <lane id=":J0_6_0" index="0" speed="8.00" length="10.13" shape="-0.96,53.20 0.60,50.60 3.35,48.95 7.20,48.40"/>
    </edge>
    <edge id=":J0_2" function="internal">
        <lane id=":J0_2_0" index="0" speed="6.51" length="9.03" shape="7.20,51.60 4.75,51.95 3.00,53.00 1.95,54.75 1.60,57.20"/>
    </edge>
    <edge id=":J0_3" function="internal">
        <lane id=":J0_3_0" index="0" speed="8.00" length="14.19" shape="7.20,51.60 3.35,51.05 0.60,49.40 -1.05,46.65 -1.60,42.80"/>
    </edge>
    <edge id=":J0_4" function="internal">
        <lane id=":J0_4_0" index="0" speed="6.51" length="9.03" shape="1.60,42.80 1.95,45.25 3.00,47.00 4.75,48.05 7.20,48.40"/>
    </edge>
    <edge id=":J0_5" function="internal">
        <lane id=":J0_5_0" index="0" speed="13.89" length="14.40" shape="1.60,42.80 1.60,57.20"/>
    </edge>
    <edge id=":J1_0" function="internal">
        <lane id=":J1_0_0" index="0" speed="6.51" length="9.03" shape="48.40,57.20 48.05,54.75 47.00,53.00 45.25,51.95 42.80,51.60"/>
    </edge>
    <edge id=":J1_1" function="internal">
        <lane id=":J1_1_0" index="0" speed="13.89" length="14.40" shape="48.40,57.20 48.40,42.80"/>
    </edge>
    <edge id=":J1_2" function="internal">
        <lane id=":J1_2_0" index="0" speed="8.00" length="4.07" shape="48.40,57.20 48.95,53.35 49.04,53.20"/>
    </edge>
    <edge id=":J1_12" function="internal">
        <lane id=":J1_12_0" index="0" speed="8.00" length="10.13" shape="49.04,53.20 50.60,50.60 53.35,48.95 57.20,48.40"/>
    </edge>
    <edge id=":J1_3" function="internal">
        <lane id=":J1_3_0" index="0" speed="6.51" length="9.03" shape="57.20,51.60 54.75,51.95 53.00,53.00 51.95,54.75 51.60,57.20"/>
    </edge>
    <edge id=":J1_4" function="internal">
        <lane id=":J1_4_0" index="0" speed="13.89" length="14.40" shape="57.20,51.60 42.80,51.60"/>
    </edge>
    <edge id=":J1_5" function="internal">
        <lane id=":J1_5_0" index="0" speed="8.00" length="4.07" shape="57.20,51.60 53.35,51.05 53.20,50.96"/>
    </edge>
    <edge id=":J1_13" function="internal">
        <lane id=":J1_13_0" index="0" speed="8.00" length="10.13" shape="53.20,50.96 50.60,49.40 48.95,46.65 48.40,42.80"/>
    </edge>
    <edge id=":J1_6" function="internal">
        <lane id=":J1_6_0" index="0" speed="6.51" length="9.03" shape="51.60,42.80 51.95,45.25 53.00,47.00 54.75,48.05 57.20,48.40"/>
    </edge>
    <edge id=":J1_7" function="internal">
        <lane id=":J1_7_0" index="0" speed="13.89" length="14.40" shape="51.60,42.80 51.60,57.20"/>
    </edge>
    <edge id=":J1_8" function="internal">
        <lane id=":J1_8_0" index="0" speed="8.00" length="4.07" shape="51.60,42.80 51.05,46.65 50.96,46.80"/>
    </edge>
    <edge id=":J1_14" function="internal">
        <lane id=":J1_14_0" index="0" speed="8.00" length="10.13" shape="50.96,46.80 49.40,49.40 46.65,51.05 42.80,51.60"/>
    </edge>
    <edge id=":J1_9" function="internal">
        <lane id=":J1_9_0" index="0" speed="6.51" length="9.03" shape="42.80,48.40 45.25,48.05 47.00,47.00 48.05,45.25 48.40,42.80"/>
    </edge>
    <edge id=":J1_10" function="internal">
        <lane id=":J1_10_0" index="0" speed="13.89" length="14.40" shape="42.80,48.40 57.20,48.40"/>
    </edge>
    <edge id=":J1_11" function="internal">
        <lane id=":J1_11_0" index="0" speed="8.00" length="4.07" shape="42.80,48.40 46.65,48.95 46.80,49.04"/>
    </edge>
    <edge id=":J1_15" function="internal">
        <lane id=":J1_15_0" index="0" speed="8.00" length="10.13" shape="46.80,49.04 49.40,50.60 51.05,53.35 51.60,57.20"/>
    </edge>
    <edge id=":J10_0" function="internal">
        <lane id=":J10_0_0" index="0" speed="6.51" length="9.03" shape="98.40,107.20 98.05,104.75 97.00,103.00 95.25,101.95 92.80,101.60"/>
    </edge>
    <edge id=":J10_1" function="internal">
        <lane id=":J10_1_0" index="0" speed="13.89" length="14.40" shape="98.40,107.20 98.40,92.80"/>
    </edge>
    <edge id=":J10_2" function="internal">
        <lane id=":J10_2_0" index="0" speed="8.00" length="4.07" shape="98.40,107.20 98.95,103.35 99.04,103.20"/>
    </edge>
    <edge id=":J10_12" function="internal">
        <lane id=":J10_12_0" index="0" speed="8.00" length="10.13" shape="99.04,103.20 100.60,100.60 103.35,98.95 107.20,98.40"/>
    </edge>
    <edge id=":J10_3" function="internal">
        <lane id=":J10_3_0" index="0" speed="6.51" length="9.03" shape="107.20,101.60 104.75,101.95 103.00,103.00 101.95,104.75 101.60,107.20"/>
    </edge>
    <edge id=":J10_4" function="internal">
        <lane id=":J10_4_0" index="0" speed="13.89" length="14.40" shape="107.20,101.60 92.80,101.60"/>
    </edge>
    <edge id=":J10_5" function="internal">
        <lane id=":J10_5_0" index="0" speed="8.00" length="4.07" shape="107.20,101.60 103.35,101.05 103.20,100.96"/>
    </edge>
    <edge id=":J10_13" function="internal">
        <lane id=":J10_13_0" index="0" speed="8.00" length="10.13" shape="103.20,100.96 100.60,99.40 98.95,96.65 98.40,92.80"/>
    </edge>
    <edge id=":J10_6" function="internal">
        <lane id=":J10_6_0" index="0" speed="6.51" length="9.03" shape="101.60,92.80 101.95,95.25 103.00,97.00 104.75,98.05 107.20,98.40"/>
    </edge>
    <edge id=":J10_7" function="internal">
        <lane id=":J10_7_0" index="0" speed="13.89" length="14.40" shape="101.60,92.80 101.60,107.20"/>
    </edge>
    <edge id=":J10_8" function="internal">
        <lane id=":J10_8_0" index="0" speed="8.00" length="4.07" shape="101.60,92.80 101.05,96.65 100.96,96.80"/>
    </edge>
    <edge id=":J10_14" function="internal">
        <lane id=":J10_14_0" index="0" speed="8.00" length="10.13" shape="100.96,96.80 99.40,99.40 96.65,101.05 92.80,101.60"/>
    </edge>
    <edge id=":J10_9" function="internal">
        <lane id=":J10_9_0" index="0" speed="6.51" length="9.03" shape="92.80,98.40 95.25,98.05 97.00,97.00 98.05,95.25 98.40,92.80"/>
    </edge>
    <edge id=":J10_10" function="internal">
        <lane id=":J10_10_0" index="0" speed="13.89" length="14.40" shape="92.80,98.40 107.20,98.40"/>
    </edge>
    <edge id=":J10_11" function="internal">
        <lane id=":J10_11_0" index="0" speed="8.00" length="4.07" shape="92.80,98.40 96.65,98.95 96.80,99.04"/>
    </edge>
    <edge id=":J10_15" function="internal">
        <lane id=":J10_15_0" index="0" speed="8.00" length="10.13" shape="96.80,99.04 99.40,100.60 101.05,103.35 101.60,107.20"/>
    </edge>
    <edge id=":J11_0" function="internal">
        <lane id=":J11_0_0" index="0" speed="6.51" length="9.03" shape="148.40,107.20 148.05,104.75 147.00,103.00 145.25,101.95 142.80,101.60"/>
    </edge>
    <edge id=":J11_1" function="internal">
        <lane id=":J11_1_0" index="0" speed="13.89" length="14.40" shape="148.40,107.20 148.40,92.80"/>
    </edge>
    <edge id=":J11_2" function="internal">
        <lane id=":J11_2_0" index="0" speed="13.89" length="14.40" shape="151.60,92.80 151.60,107.20"/>
    </edge>
    <edge id=":J11_3" function="internal">
        <lane id=":J11_3_0" index="0" speed="8.00" length="4.07" shape="151.60,92.80 151.05,96.65 150.96,96.80"/>
    </edge>
    <edge id=":J11_6" function="internal">
        <lane id=":J11_6_0" index="0" speed="8.00" length="10.13" shape="150.96,96.80 149.40,99.40 146.65,101.05 142.80,101.60"/>
    </edge>
    <edge id=":J11_4" function="internal">
        <lane id=":J11_4_0" index="0" speed="6.51" length="9.03" shape="142.80,98.40 145.25,98.05 147.00,97.00 148.05,95.25 148.40,92.80"/>
    </edge>
    <edge id=":J11_5" function="internal">
        <lane id=":J11_5_0" index="0" speed="8.00" length="14.19" shape="142.80,98.40 146.65,98.95 149.40,100.60 151.05,103.35 151.60,107.20"/>
    </edge>
    <edge id=":J12_0" function="internal">
        <lane id=":J12_0_0" index="0" speed="13.89" length="14.40" shape="7.20,151.60 -7.20,151.60"/>
    </edge>
    <edge id=":J12_1" function="internal">
        <lane id=":J12_1_0" index="0" speed="8.00" length="4.07" shape="7.20,151.60 3.35,151.05 3.20,150.96"/>
    </edge>
    <edge id=":J12_6" function="internal">
        <lane id=":J12_6_0" index="0" speed="8.00" length="10.13" shape="3.20,150.96 0.60,149.40 -1.05,146.65 -1.60,142.80"/>
    </edge>
    <edge id=":J12_2" function="internal">
        <lane id=":J12_2_0" index="0" speed="6.51" length="9.03" shape="1.60,142.80 1.95,145.25 3.00,147.00 4.75,148.05 7.20,148.40"/>
    </edge>
    <edge id=":J12_3" function="internal">
        <lane id=":J12_3_0" index="0" speed="8.00" length="14.19" shape="1.60,142.80 1.05,146.65 -0.60,149.40 -3.35,151.05 -7.20,151.60"/>
    </edge>
    <edge id=":J12_4" function="internal">
        <lane id=":J12_4_0" index="0" speed="6.51" length="9.03" shape="-7.20,148.40 -4.75,148.05 -3.00,147.00 -1.95,145.25 -1.60,142.80"/>
    </edge>
    <edge id=":J12_5" function="internal">
        <lane id=":J12_5_0" index="0" speed="13.89" length="14.40" shape="-7.20,148.40 7.20,148.40"/>
    </edge>
    <edge id=":J13_0" function="internal">
        <lane id=":J13_0_0" index="0" speed="13.89" length="14.40" shape="57.20,151.60 42.80,151.60"/>
    </edge>
    <edge id=":J13_1" function="internal">
        <lane id=":J13_1_0" index="0" speed="8.00" length="4.07" shape="57.20,151.60 53.35,151.05 53.20,150.96"/>
    </edge>
    <edge id=":J13_6" function="internal">
        <lane id=":J13_6_0" index="0" speed="8.00" length="10.13" shape="53.20,150.96 50.60,149.40 48.95,146.65 48.40,142.80"/>
    </edge>
    <edge id=":J13_2" function="internal">
        <lane id=":J13_2_0" index="0" speed="6.51" length="9.03" shape="51.60,142.80 51.95,145.25 53.00,147.00 54.75,148.05 57.20,148.40"/>
    </edge>
    <edge id=":J13_3" function="internal">
        <lane id=":J13_3_0" index="0" speed="8.00" length="14.19" shape="51.60,142.80 51.05,146.65 49.40,149.40 46.65,151.05 42.80,151.60"/>
    </edge>
    <edge id=":J13_4" function="internal">
        <lane id=":J13_4_0" index="0" speed="6.51" length="9.03" shape="42.80,148.40 45.25,148.05 47.00,147.00 48.05,145.25 48.40,142.80"/>
    </edge>
    <edge id=":J13_5" function="internal">
        <lane id=":J13_5_0" index="0" speed="13.89" length="14.40" shape="42.80,148.40 57.20,148.40"/>
    </edge>
    <edge id=":J14_0" function="internal">
        <lane id=":J14_0_0" index="0" speed="13.89" length="14.40" shape="107.20,151.60 92.80,151.60"/>
    </edge>
    <edge id=":J14_1" function="internal">
        <lane id=":J14_1_0" index="0" speed="8.00" length="4.07" shape="107.20,151.60 103.35,151.05 103.20,150.96"/>
    </edge>
    <edge id=":J14_6" function="internal">
        <lane id=":J14_6_0" index="0" speed="8.00" length="10.13" shape="103.20,150.96 100.60,149.40 98.95,146.65 98.40,142.80"/>
    </edge>
    <edge id=":J14_2" function="internal">
        <lane id=":J14_2_0" index="0" speed="6.51" length="9.03" shape="101.60,142.80 101.95,145.25 103.00,147.00 104.75,148.05 107.20,148.40"/>
    </edge>
    <edge id=":J14_3" function="internal">
        <lane id=":J14_3_0" index="0" speed="8.00" length="14.19" shape="101.60,142.80 101.05,146.65 99.40,149.40 96.65,151.05 92.80,151.60"/>
    </edge>
    <edge id=":J14_4" function="internal">
        <lane id=":J14_4_0" index="0" speed="6.51" length="9.03" shape="92.80,148.40 95.25,148.05 97.00,147.00 98.05,145.25 98.40,142.80"/>
    </edge>
    <edge id=":J14_5" function="internal">
        <lane id=":J14_5_0" index="0" speed="13.89" length="14.40" shape="92.80,148.40 107.20,148.40"/>
    </edge>
    <edge id=":J15_0" function="internal">
        <lane id=":J15_0_0" index="0" speed="13.89" length="14.40" shape="157.20,151.60 142.80,151.60"/>
    </edge>
    <edge id=":J15_1" function="internal">
        <lane id=":J15_1_0" index="0" speed="8.00" length="4.07" shape="157.20,151.60 153.35,151.05 153.20,150.96"/>
    </edge>
    <edge id=":J15_6" function="internal">
        <lane id=":J15_6_0" index="0" speed="8.00" length="10.13" shape="153.20,150.96 150.60,149.40 148.95,146.65 148.40,142.80"/>
    </edge>
    <edge id=":J15_2" function="internal">
        <lane id=":J15_2_0" index="0" speed="6.51" length="9.03" shape="151.60,142.80 151.95,145.25 153.00,147.00 154.75,148.05 157.20,148.40"/>
    </edge>
    <edge id=":J15_3" function="internal">
        <lane id=":J15_3_0" index="0" speed="8.00" length="14.19" shape="151.60,142.80 151.05,146.65 149.40,149.40 146.65,151.05 142.80,151.60"/>
    </edge>
    <edge id=":J15_4" function="internal">
        <lane id=":J15_4_0" index="0" speed="6.51" length="9.03" shape="142.80,148.40 145.25,148.05 147.00,147.00 148.05,145.25 148.40,142.80"/>
    </edge>
    <edge id=":J15_5" function="internal">
        <lane id=":J15_5_0" index="0" speed="13.89" length="14.40" shape="142.80,148.40 157.20,148.40"/>
    </edge>
    <edge id=":J2_0" function="internal">
        <lane id=":J2_0_0" index="0" speed="6.51" length="9.03" shape="48.40,7.20 48.05,4.75 47.00,3.00 45.25,1.95 42.80,1.60"/>
    </edge>
    <edge id=":J2_1" function="internal">
        <lane id=":J2_1_0" index="0" speed="8.00" length="14.19" shape="48.40,7.20 48.95,3.35 50.60,0.60 53.35,-1.05 57.20,-1.60"/>
    </edge>
    <edge id=":J2_2" function="internal">
        <lane id=":J2_2_0" index="0" speed="6.51" length="9.03" shape="57.20,1.60 54.75,1.95 53.00,3.00 51.95,4.75 51.60,7.20"/>
    </edge>
    <edge id=":J2_3" function="internal">
        <lane id=":J2_3_0" index="0" speed="13.89" length="14.40" shape="57.20,1.60 42.80,1.60"/>
    </edge>
    <edge id=":J2_4" function="internal">
        <lane id=":J2_4_0" index="0" speed="13.89" length="14.40" shape="42.80,-1.60 57.20,-1.60"/>
    </edge>
    <edge id=":J2_5" function="internal">
        <lane id=":J2_5_0" index="0" speed="8.00" length="4.07" shape="42.80,-1.60 46.65,-1.05 46.80,-0.96"/>
    </edge>
    <edge id=":J2_6" function="internal">
        <lane id=":J2_6_0" index="0" speed="8.00" length="10.13" shape="46.80,-0.96 49.40,0.60 51.05,3.35 51.60,7.20"/>
    </edge>
    <edge id=":J3_0" function="internal">
        <lane id=":J3_0_0" index="0" speed="6.51" length="9.03" shape="-1.60,7.20 -1.95,4.75 -3.00,3.00 -4.75,1.95 -7.20,1.60"/>
    </edge>
    <edge id=":J3_1" function="internal">
        <lane id=":J3_1_0" index="0" speed="8.00" length="14.19" shape="-1.60,7.20 -1.05,3.35 0.60,0.60 3.35,-1.05 7.20,-1.60"/>
    </edge>
    <edge id=":J3_2" function="internal">
        <lane id=":J3_2_0" index="0" speed="6.51" length="9.03" shape="7.20,1.60 4.75,1.95 3.00,3.00 1.95,4.75 1.60,7.20"/>
    </edge>
    <edge id=":J3_3" function="internal">
        <lane id=":J3_3_0" index="0" speed="13.89" length="14.40" shape="7.20,1.60 -7.20,1.60"/>
    </edge>
    <edge id=":J3_4" function="internal">
        <lane id=":J3_4_0" index="0" speed="13.89" length="14.40" shape="-7.20,-1.60 7.20,-1.60"/>
    </edge>
    <edge id=":J3_5" function="internal">
        <lane id=":J3_5_0" index="0" speed="8.00" length="4.07" shape="-7.20,-1.60 -3.35,-1.05 -3.20,-0.96"/>
    </edge>
    <edge id=":J3_6" function="internal">
        <lane id=":J3_6_0" index="0" speed="8.00" length="10.13" shape="-3.20,-0.96 -0.60,0.60 1.05,3.35 1.60,7.20"/>
    </edge>
    <edge id=":J4_0" function="internal">
        <lane id=":J4_0_0" index="0" speed="6.51" length="9.03" shape="98.40,57.20 98.05,54.75 97.00,53.00 95.25,51.95 92.80,51.60"/>
    </edge>
    <edge id=":J4_1" function="internal">
        <lane id=":J4_1_0" index="0" speed="13.89" length="14.40" shape="98.40,57.20 98.40,42.80"/>
    </edge>
    <edge id=":J4_2" function="internal">
        <lane id=":J4_2_0" index="0" speed="8.00" length="4.07" shape="98.40,57.20 98.95,53.35 99.04,53.20"/>
    </edge>
    <edge id=":J4_12" function="internal">
        <lane id=":J4_12_0" index="0" speed="8.00" length="10.13" shape="99.04,53.20 100.60,50.60 103.35,48.95 107.20,48.40"/>
    </edge>
    <edge id=":J4_3" function="internal">
        <lane id=":J4_3_0" index="0" speed="6.51" length="9.03" shape="107.20,51.60 104.75,51.95 103.00,53.00 101.95,54.75 101.60,57.20"/>
    </edge>
    <edge id=":J4_4" function="internal">
        <lane id=":J4_4_0" index="0" speed="13.89" length="14.40" shape="107.20,51.60 92.80,51.60"/>
    </edge>
    <edge id=":J4_5" function="internal">
        <lane id=":J4_5_0" index="0" speed="8.00" length="4.07" shape="107.20,51.60 103.35,51.05 103.20,50.96"/>
    </edge>
    <edge id=":J4_13" function="internal">
        <lane id=":J4_13_0" index="0" speed="8.00" length="10.13" shape="103.20,50.96 100.60,49.40 98.95,46.65 98.40,42.80"/>
    </edge>
    <edge id=":J4_6" function="internal">
        <lane id=":J4_6_0" index="0" speed="6.51" length="9.03" shape="101.60,42.80 101.95,45.25 103.00,47.00 104.75,48.05 107.20,48.40"/>
    </edge>
    <edge id=":J4_7" function="internal">
        <lane id=":J4_7_0" index="0" speed="13.89" length="14.40" shape="101.60,42.80 101.60,57.20"/>
    </edge>
    <edge id=":J4_8" function="internal">
        <lane id=":J4_8_0" index="0" speed="8.00" length="4.07" shape="101.60,42.80 101.05,46.65 100.96,46.80"/>
    </edge>
    <edge id=":J4_14" function="internal">
        <lane id=":J4_14_0" index="0" speed="8.00" length="10.13" shape="100.96,46.80 99.40,49.40 96.65,51.05 92.80,51.60"/>
    </edge>
    <edge id=":J4_9" function="internal">
        <lane id=":J4_9_0" index="0" speed="6.51" length="9.03" shape="92.80,48.40 95.25,48.05 97.00,47.00 98.05,45.25 98.40,42.80"/>
    </edge>
    <edge id=":J4_10" function="internal">
        <lane id=":J4_10_0" index="0" speed="13.89" length="14.40" shape="92.80,48.40 107.20,48.40"/>
    </edge>
    <edge id=":J4_11" function="internal">
        <lane id=":J4_11_0" index="0" speed="8.00" length="4.07" shape="92.80,48.40 96.65,48.95 96.80,49.04"/>
    </edge>
    <edge id=":J4_15" function="internal">
        <lane id=":J4_15_0" index="0" speed="8.00" length="10.13" shape="96.80,49.04 99.40,50.60 101.05,53.35 101.60,57.20"/>
    </edge>
    <edge id=":J5_0" function="internal">
        <lane id=":J5_0_0" index="0" speed="6.51" length="9.03" shape="98.40,7.20 98.05,4.75 97.00,3.00 95.25,1.95 92.80,1.60"/>
    </edge>
    <edge id=":J5_1" function="internal">
        <lane id=":J5_1_0" index="0" speed="8.00" length="14.19" shape="98.40,7.20 98.95,3.35 100.60,0.60 103.35,-1.05 107.20,-1.60"/>
    </edge>
    <edge id=":J5_2" function="internal">
        <lane id=":J5_2_0" index="0" speed="6.51" length="9.03" shape="107.20,1.60 104.75,1.95 103.00,3.00 101.95,4.75 101.60,7.20"/>
    </edge>
    <edge id=":J5_3" function="internal">
        <lane id=":J5_3_0" index="0" speed="13.89" length="14.40" shape="107.20,1.60 92.80,1.60"/>
    </edge>
    <edge id=":J5_4" function="internal">
        <lane id=":J5_4_0" index="0" speed="13.89" length="14.40" shape="92.80,-1.60 107.20,-1.60"/>
    </edge>
    <edge id=":J5_5" function="internal">
        <lane id=":J5_5_0" index="0" speed="8.00" length="4.07" shape="92.80,-1.60 96.65,-1.05 96.80,-0.96"/>
    </edge>
    <edge id=":J5_6" function="internal">
        <lane id=":J5_6_0" index="0" speed="8.00" length="10.13" shape="96.80,-0.96 99.40,0.60 101.05,3.35 101.60,7.20"/>
    </edge>
    <edge id=":J6_0" function="internal">
        <lane id=":J6_0_0" index="0" speed="6.51" length="9.03" shape="148.40,57.20 148.05,54.75 147.00,53.00 145.25,51.95 142.80,51.60"/>
    </edge>
    <edge id=":J6_1" function="internal">
        <lane id=":J6_1_0" index="0" speed="13.89" length="14.40" shape="148.40,57.20 148.40,42.80"/>
    </edge>
    <edge id=":J6_2" function="internal">
        <lane id=":J6_2_0" index="0" speed="13.89" length="14.40" shape="151.60,42.80 151.60,57.20"/>
    </edge>
    <edge id=":J6_3" function="internal">
        <lane id=":J6_3_0" index="0" speed="8.00" length="4.07" shape="151.60,42.80 151.05,46.65 150.96,46.80"/>
    </edge>
    <edge id=":J6_6" function="internal">
        <lane id=":J6_6_0" index="0" speed="8.00" length="10.13" shape="150.96,46.80 149.40,49.40 146.65,51.05 142.80,51.60"/>
    </edge>
    <edge id=":J6_4" function="internal">
        <lane id=":J6_4_0" index="0" speed="6.51" length="9.03" shape="142.80,48.40 145.25,48.05 147.00,47.00 148.05,45.25 148.40,42.80"/>
    </edge>
    <edge id=":J6_5" function="internal">
        <lane id=":J6_5_0" index="0" speed="8.00" length="14.19" shape="142.80,48.40 146.65,48.95 149.40,50.60 151.05,53.35 151.60,57.20"/>
    </edge>
    <edge id=":J7_0" function="internal">
        <lane id=":J7_0_0" index="0" speed="6.51" length="9.03" shape="148.40,7.20 148.05,4.75 147.00,3.00 145.25,1.95 142.80,1.60"/>
    </edge>
    <edge id=":J7_1" function="internal">
        <lane id=":J7_1_0" index="0" speed="8.00" length="14.19" shape="148.40,7.20 148.95,3.35 150.60,0.60 153.35,-1.05 157.20,-1.60"/>
    </edge>
    <edge id=":J7_2" function="internal">
        <lane id=":J7_2_0" index="0" speed="6.51" length="9.03" shape="157.20,1.60 154.75,1.95 153.00,3.00 151.95,4.75 151.60,7.20"/>
    </edge>
    <edge id=":J7_3" function="internal">
        <lane id=":J7_3_0" index="0" speed="13.89" length="14.40" shape="157.20,1.60 142.80,1.60"/>
    </edge>
    <edge id=":J7_4" function="internal">
        <lane id=":J7_4_0" index="0" speed="13.89" length="14.40" shape="142.80,-1.60 157.20,-1.60"/>
    </edge>
    <edge id=":J7_5" function="internal">
        <lane id=":J7_5_0" index="0" speed="8.00" length="4.07" shape="142.80,-1.60 146.65,-1.05 146.80,-0.96"/>
    </edge>
    <edge id=":J7_6" function="internal">
        <lane id=":J7_6_0" index="0" speed="8.00" length="10.13" shape="146.80,-0.96 149.40,0.60 151.05,3.35 151.60,7.20"/>
    </edge>
    <edge id=":J8_0" function="internal">
        <lane id=":J8_0_0" index="0" speed="13.89" length="14.40" shape="-1.60,107.20 -1.60,92.80"/>
    </edge>
    <edge id=":J8_1" function="internal">
        <lane id=":J8_1_0" index="0" speed="8.00" length="4.07" shape="-1.60,107.20 -1.05,103.35 -0.96,103.20"/>
    </edge>
    <edge id=":J8_6" function="internal">
        <lane id=":J8_6_0" index="0" speed="8.00" length="10.13" shape="-0.96,103.20 0.60,100.60 3.35,98.95 7.20,98.40"/>
    </edge>
    <edge id=":J8_2" function="internal">
        <lane id=":J8_2_0" index="0" speed="6.51" length="9.03" shape="7.20,101.60 4.75,101.95 3.00,103.00 1.95,104.75 1.60,107.20"/>
    </edge>
    <edge id=":J8_3" function="internal">
        <lane id=":J8_3_0" index="0" speed="8.00" length="14.19" shape="7.20,101.60 3.35,101.05 0.60,99.40 -1.05,96.65 -1.60,92.80"/>
    </edge>
    <edge id=":J8_4" function="internal">
        <lane id=":J8_4_0" index="0" speed="6.51" length="9.03" shape="1.60,92.80 1.95,95.25 3.00,97.00 4.75,98.05 7.20,98.40"/>
    </edge>
    <edge id=":J8_5" function="internal">
        <lane id=":J8_5_0" index="0" speed="13.89" length="14.40" shape="1.60,92.80 1.60,107.20"/>
    </edge>
    <edge id=":J9_0" function="internal">
        <lane id=":J9_0_0" index="0" speed="6.51" length="9.03" shape="48.40,107.20 48.05,104.75 47.00,103.00 45.25,101.95 42.80,101.60"/>
    </edge>
    <edge id=":J9_1" function="internal">
        <lane id=":J9_1_0" index="0" speed="13.89" length="14.40" shape="48.40,107.20 48.40,92.80"/>
    </edge>
    <edge id=":J9_2" function="internal">
        <lane id=":J9_2_0" index="0" speed="8.00" length="4.07" shape="48.40,107.20 48.95,103.35 49.04,103.20"/>
    </edge>
    <edge id=":J9_12" function="internal">
        <lane id=":J9_12_0" index="0" speed="8.00" length="10.13" shape="49.04,103.20 50.60,100.60 53.35,98.95 57.20,98.40"/>
    </edge>
    <edge id=":J9_3" function="internal">
        <lane id=":J9_3_0" index="0" speed="6.51" length="9.03" shape="57.20,101.60 54.75,101.95 53.00,103.00 51.95,104.75 51.60,107.20"/>
    </edge>
    <edge id=":J9_4" function="internal">
        <lane id=":J9_4_0" index="0" speed="13.89" length="14.40" shape="57.20,101.60 42.80,101.60"/>
    </edge>
    <edge id=":J9_5" function="internal">
        <lane id=":J9_5_0" index="0" speed="8.00" length="4.07" shape="57.20,101.60 53.35,101.05 53.20,100.96"/>
    </edge>
    <edge id=":J9_13" function="internal">
        <lane id=":J9_13_0" index="0" speed="8.00" length="10.13" shape="53.20,100.96 50.60,99.40 48.95,96.65 48.40,92.80"/>
    </edge>
    <edge id=":J9_6" function="internal">
        <lane id=":J9_6_0" index="0" speed="6.51" length="9.03" shape="51.60,92.80 51.95,95.25 53.00,97.00 54.75,98.05 57.20,98.40"/>
    </edge>
    <edge id=":J9_7" function="internal">
        <lane id=":J9_7_0" index="0" speed="13.89" length="14.40" shape="51.60,92.80 51.60,107.20"/>
    </edge>
    <edge id=":J9_8" function="internal">
        <lane id=":J9_8_0" index="0" speed="8.00" length="4.07" shape="51.60,92.80 51.05,96.65 50.96,96.80"/>
    </edge>
    <edge id=":J9_14" function="internal">
        <lane id=":J9_14_0" index="0" speed="8.00" length="10.13" shape="50.96,96.80 49.40,99.40 46.65,101.05 42.80,101.60"/>
    </edge>
    <edge id=":J9_9" function="internal">
        <lane id=":J9_9_0" index="0" speed="6.51" length="9.03" shape="42.80,98.40 45.25,98.05 47.00,97.00 48.05,95.25 48.40,92.80"/>
    </edge>
    <edge id=":J9_10" function="internal">
        <lane id=":J9_10_0" index="0" speed="13.89" length="14.40" shape="42.80,98.40 57.20,98.40"/>
    </edge>
    <edge id=":J9_11" function="internal">
        <lane id=":J9_11_0" index="0" speed="8.00" length="4.07" shape="42.80,98.40 46.65,98.95 46.80,99.04"/>
    </edge>
    <edge id=":J9_15" function="internal">
        <lane id=":J9_15_0" index="0" speed="8.00" length="10.13" shape="46.80,99.04 49.40,100.60 51.05,103.35 51.60,107.20"/>
    </edge>

    <edge id="-E0" from="J1" to="J0" priority="-1">
        <lane id="-E0_0" index="0" speed="13.89" length="35.60" shape="42.80,51.60 7.20,51.60"/>
    </edge>
    <edge id="-E1" from="J2" to="J1" priority="-1">
        <lane id="-E1_0" index="0" speed="13.89" length="35.60" shape="51.60,7.20 51.60,42.80"/>
    </edge>
    <edge id="-E10" from="J8" to="J0" priority="-1">
        <lane id="-E10_0" index="0" speed="13.89" length="35.60" shape="-1.60,92.80 -1.60,57.20"/>
    </edge>
    <edge id="-E11" from="J12" to="J8" priority="-1">
        <lane id="-E11_0" index="0" speed="13.89" length="35.60" shape="-1.60,142.80 -1.60,107.20"/>
    </edge>
    <edge id="-E12" from="J9" to="J1" priority="-1">
        <lane id="-E12_0" index="0" speed="13.89" length="35.60" shape="48.40,92.80 48.40,57.20"/>
    </edge>
    <edge id="-E13" from="J13" to="J9" priority="-1">
        <lane id="-E13_0" index="0" speed="13.89" length="35.60" shape="48.40,142.80 48.40,107.20"/>
    </edge>
    <edge id="-E14" from="J14" to="J13" priority="-1">
        <lane id="-E14_0" index="0" speed="13.89" length="35.60" shape="92.80,151.60 57.20,151.60"/>
    </edge>
    <edge id="-E15" from="J11" to="J15" priority="-1">
        <lane id="-E15_0" index="0" speed="13.89" length="35.60" shape="151.60,107.20 151.60,142.80"/>
    </edge>
    <edge id="-E16" from="J6" to="J11" priority="-1">
        <lane id="-E16_0" index="0" speed="13.89" length="35.60" shape="151.60,57.20 151.60,92.80"/>
    </edge>
    <edge id="-E17" from="J5" to="J7" priority="-1">
        <lane id="-E17_0" index="0" speed="13.89" length="35.60" shape="107.20,-1.60 142.80,-1.60"/>
    </edge>
    <edge id="-E18" from="J5" to="J2" priority="-1">
        <lane id="-E18_0" index="0" speed="13.89" length="35.60" shape="92.80,1.60 57.20,1.60"/>
    </edge>
    <edge id="-E19" from="J1" to="J4" priority="-1">
        <lane id="-E19_0" index="0" speed="13.89" length="35.60" shape="57.20,48.40 92.80,48.40"/>
    </edge>
    <edge id="-E2" from="J3" to="J2" priority="-1">
        <lane id="-E2_0" index="0" speed="13.89" length="35.60" shape="7.20,-1.60 42.80,-1.60"/>
    </edge>
    <edge id="-E20" from="J6" to="J4" priority="-1">
        <lane id="-E20_0" index="0" speed="13.89" length="35.60" shape="142.80,51.60 107.20,51.60"/>
    </edge>